Version 4
SHEET 1 2736 3360
WIRE -256 496 -336 496
WIRE -192 496 -256 496
WIRE 208 496 64 496
WIRE 496 512 448 512
WIRE 1248 512 752 512
WIRE 208 544 160 544
WIRE -256 592 -256 496
WIRE 752 672 752 512
WIRE 800 672 752 672
WIRE 1200 736 1152 736
WIRE 1248 736 1200 736
WIRE 800 816 752 816
WIRE -256 880 160 544
WIRE 128 960 -256 592
WIRE 208 960 128 960
WIRE 496 976 448 976
WIRE 752 976 752 816
WIRE 1248 976 752 976
WIRE -256 1008 -256 880
WIRE -256 1008 -368 1008
WIRE -192 1008 -256 1008
WIRE 208 1008 64 1008
WIRE -320 1328 -320 1264
WIRE -320 1328 -496 1328
WIRE -96 1328 -320 1328
WIRE -496 1408 -496 1328
WIRE -96 1408 -96 1328
WIRE 304 1408 224 1408
WIRE 752 1408 752 1392
WIRE 752 1456 752 1408
WIRE -320 1472 -336 1472
WIRE -272 1472 -320 1472
WIRE -176 1472 -272 1472
WIRE 304 1488 240 1488
WIRE -496 1600 -496 1536
WIRE -304 1600 -496 1600
WIRE -96 1600 -96 1536
WIRE -96 1600 -304 1600
WIRE -208 1952 -288 1952
WIRE -144 1952 -208 1952
WIRE 256 1952 112 1952
WIRE 544 1968 496 1968
WIRE 1296 1968 800 1968
WIRE 256 2000 208 2000
WIRE -208 2048 -208 1952
WIRE 800 2128 800 1968
WIRE 848 2128 800 2128
WIRE 1248 2192 1200 2192
WIRE 1296 2192 1248 2192
WIRE 848 2272 800 2272
WIRE -208 2336 208 2000
WIRE 176 2416 -208 2048
WIRE 256 2416 176 2416
WIRE 544 2432 496 2432
WIRE 800 2432 800 2272
WIRE 1296 2432 800 2432
WIRE -208 2464 -208 2336
WIRE -208 2464 -320 2464
WIRE -144 2464 -208 2464
WIRE 256 2464 112 2464
FLAG -416 544 0
FLAG -464 1040 0
FLAG 576 1488 0
FLAG -336 496 a2
FLAG -416 464 a2
FLAG -464 960 b2
FLAG 576 1408 vdd
FLAG -368 1008 b2
FLAG 1248 512 smaller
FLAG 1248 736 equal
FLAG 1248 976 greater
FLAG 752 1456 0
FLAG 752 1408 GND
IOPIN 752 1408 In
FLAG -112 432 vdd
FLAG -112 944 vdd
FLAG 320 880 vdd
FLAG 320 416 vdd
FLAG 576 448 vdd
FLAG 576 912 vdd
FLAG 960 608 vdd
FLAG 960 880 0
FLAG 576 1040 0
FLAG 320 1072 0
FLAG 576 576 0
FLAG 320 608 0
FLAG -112 1072 0
FLAG -112 560 0
FLAG -384 1984 0
FLAG -416 2512 0
FLAG -288 1952 a1
FLAG -384 1904 a1
FLAG -416 2432 b1
FLAG -320 2464 b1
FLAG 1296 1968 smaller_1
FLAG 1296 2192 equal_1
FLAG 1296 2432 greater_1
FLAG -576 1472 equal
FLAG -272 1472 equal_b
FLAG -320 1264 vdd
FLAG 304 1408 vdd_gated
FLAG -64 1888 vdd_gated
FLAG 368 1872 vdd_gated
FLAG 624 1904 vdd_gated
FLAG 1008 2064 vdd_gated
FLAG 624 2368 vdd_gated
FLAG 368 2336 vdd_gated
FLAG -64 2400 vdd_gated
FLAG 304 1488 gnd_gated
FLAG -64 2528 gnd_gated
FLAG 368 2528 gnd_gated
FLAG 624 2496 gnd_gated
FLAG 1008 2336 gnd_gated
FLAG 368 2064 gnd_gated
FLAG 624 2032 gnd_gated
FLAG -64 2016 gnd_gated
FLAG -304 1600 0
FLAG 80 1472 Eq
FLAG 224 1408 Eq
FLAG 240 1488 0
SYMBOL INV_20_10 -160 432 R0
SYMATTR InstName X1
SYMBOL INV_20_10 -160 944 R0
SYMATTR InstName X2
SYMBOL nand101 288 512 R0
SYMATTR InstName X3
SYMBOL nand101 288 976 R0
SYMATTR InstName X4
SYMBOL INV_20_10 528 912 R0
SYMATTR InstName X5
SYMBOL INV_20_10 528 448 R0
SYMATTR InstName X6
SYMBOL voltage -416 448 R0
WINDOW 3 -310 144 Left 2
SYMATTR Value PULSE(0 1.8 1n 100p 100p 100n 200n)
SYMATTR InstName V1
SYMBOL voltage -464 944 R0
WINDOW 3 -259 149 Left 2
SYMATTR Value PULSE(0 1.8 1n 100p 100p 50n 100n)
SYMATTR InstName V2
SYMBOL voltage 576 1392 R0
WINDOW 123 0 0 Left 0
WINDOW 39 0 0 Left 0
SYMATTR InstName V3
SYMATTR Value 1.8
SYMBOL exNor 896 736 R0
SYMATTR InstName X7
SYMBOL INV_20_10 -112 1888 R0
SYMATTR InstName X8
SYMBOL INV_20_10 -112 2400 R0
SYMATTR InstName X9
SYMBOL nand101 336 1968 R0
SYMATTR InstName X10
SYMBOL nand101 336 2432 R0
SYMATTR InstName X11
SYMBOL INV_20_10 576 2368 R0
SYMATTR InstName X12
SYMBOL INV_20_10 576 1904 R0
SYMATTR InstName X13
SYMBOL voltage -384 1888 R0
WINDOW 123 0 0 Left 0
WINDOW 39 0 0 Left 0
WINDOW 3 -262 145 Left 2
SYMATTR Value PULSE(0 1.8 1n 100p 100p 25n 50n)
SYMATTR InstName V4
SYMBOL voltage -416 2416 R0
WINDOW 123 0 0 Left 0
WINDOW 39 0 0 Left 0
WINDOW 3 -257 144 Left 2
SYMATTR Value PULSE(0 1.8 1n 100p 100p 12.5n 25n)
SYMATTR InstName V5
SYMBOL exNor 944 2192 R0
SYMATTR InstName X14
SYMBOL INV_20_10 -544 1408 R0
SYMATTR InstName X15
SYMBOL INV_20_10 -144 1408 R0
SYMATTR InstName X16
TEXT 1392 520 Left 2 ;a2 < b2
TEXT 1392 744 Left 2 ;a2 =  b2
TEXT 1400 976 Left 2 ;a2 > b2
TEXT 920 1440 Left 2 !.tran 300n
TEXT 1456 1976 Left 2 ;A < B
TEXT 1456 2200 Left 2 ;A = B
TEXT 1464 2432 Left 2 ;A > B
TEXT -1256 3344 Left 2 !.lib "D:\\MIT MICRO\\vsd internship\\osu180_lib\\osu018.lib"
