Version 4
SHEET 1 1764 964
WIRE -64 96 -144 96
WIRE 0 96 -64 96
WIRE 544 112 496 112
WIRE 1296 112 800 112
WIRE 256 144 224 144
WIRE -64 192 -64 96
WIRE 800 272 800 112
WIRE 848 272 800 272
WIRE 1248 336 1200 336
WIRE 1296 336 1248 336
WIRE -464 368 -464 352
WIRE -464 416 -464 368
WIRE 848 416 800 416
WIRE -64 480 224 144
WIRE 208 560 -64 192
WIRE 256 560 208 560
WIRE 544 576 496 576
WIRE 800 576 800 416
WIRE 1296 576 800 576
WIRE -64 608 -64 480
WIRE -64 608 -176 608
WIRE 0 608 -64 608
FLAG -240 192 0
FLAG -272 640 0
FLAG -288 432 0
FLAG -144 96 i1
FLAG -240 112 i1
FLAG -272 560 i2
FLAG -288 352 vdd
FLAG -176 608 i2
FLAG 1296 112 smaller
FLAG 1296 336 equal
FLAG 1296 576 greater
FLAG -464 416 0
FLAG -464 368 GND
IOPIN -464 368 In
FLAG 80 32 vdd
FLAG 80 544 vdd
FLAG 368 480 vdd
FLAG 368 16 vdd
FLAG 624 48 vdd
FLAG 624 512 vdd
FLAG 1008 208 vdd
FLAG 1008 480 0
FLAG 624 640 0
FLAG 368 672 0
FLAG 624 176 0
FLAG 368 208 0
FLAG 80 672 0
FLAG 80 160 0
SYMBOL INV_20_10 32 32 R0
SYMATTR InstName X1
SYMBOL INV_20_10 32 544 R0
SYMATTR InstName X2
SYMBOL nand101 336 112 R0
SYMATTR InstName X3
SYMBOL nand101 336 576 R0
SYMATTR InstName X4
SYMBOL INV_20_10 576 512 R0
SYMATTR InstName X5
SYMBOL INV_20_10 576 48 R0
SYMATTR InstName X6
SYMBOL voltage -240 96 R0
WINDOW 3 -278 129 Left 2
SYMATTR Value PULSE(0 1.8 1n 100p 100p 100n 200n)
SYMATTR InstName V1
SYMBOL voltage -272 544 R0
WINDOW 3 -209 158 Left 2
SYMATTR Value PULSE(0 1.8 1n 100p 100p 50n 100n)
SYMATTR InstName V2
SYMBOL voltage -288 336 R0
WINDOW 123 0 0 Left 0
WINDOW 39 0 0 Left 0
SYMATTR InstName V3
SYMATTR Value 1.8
SYMBOL exNor 944 336 R0
SYMATTR InstName X7
TEXT 1304 152 Left 2 ;A < B
TEXT 1296 376 Left 2 ;A = B
TEXT 1312 616 Left 2 ;A > B
TEXT -320 456 Left 2 !.tran 300n
